/*--------------------------------*- C++ -*----------------------------------*\
| =========                 |                                                 |
| \\      /  F ield         | OpenFOAM: The Open Source CFD Toolbox           |
|  \\    /   O peration     | Version:  1.7.1                                 |
|   \\  /    A nd           | Web:      www.OpenFOAM.com                      |
|    \\/     M anipulation  |                                                 |
\*---------------------------------------------------------------------------*/
FoamFile
{
    version     2.0;
    format      ascii;
    class       dictionary;
    location    "constant";
    object      transportProperties;
}
// * * * * * * * * * * * * sediment properties * * * * * * * * * * * * //
phasesolid
{
    rho             rho [ 1 -3 0 0 0 ] 2650;
    nu              nu [ 0 2 -1 0 0 ] 0e0;
    d               d [ 0 1 0 0 0 0 0 ] 5.e-4;
    sF              sF   [ 0 0  0 0 0 0 0 ] 1;    // shape Factor to adjust settling velocity for non-spherical particles
    hExp            hExp [ 0 0  0 0 0 0 0 ] 2.65;  // hindrance exponent for drag: beta^(-hExp) (2.65 by default)
}

phasewater
{
    rho             rho [ 1 -3 0 0 0 ] 1000;
    nu              nu [ 0 2 -1 0 0 ] 1.e-6;
    d               d [ 0 1 0 0 0 0 0 ] 3.e-3;
    sF              sF   [ 0 0  0 0 0 0 0 ] 0.5;
    hExp            hExp [ 0 0  0 0 0 0 0 ] 2.65;
}

phasegas
{
    rho             rho [ 1 -3 0 0 0 ] 1;
    nu              nu [ 0 2 -1 0 0 ] 1.48e-5;
    d               d [ 0 1 0 0 0 0 0 ] 3.e-3;
    sF              sF   [ 0 0  0 0 0 0 0 ] 0.5;
    hExp            hExp [ 0 0  0 0 0 0 0 ] 2.65;
}

phases (water air);

water
{
    transportModel  Newtonian;
    nu              nu [ 0 2 -1 0 0 0 0 ] 1e-06;
    rho             rho [ 1 -3 0 0 0 0 0 ] 1000;
    CrossPowerLawCoeffs
    {
        nu0             nu0 [ 0 2 -1 0 0 0 0 ] 1e-06;
        nuInf           nuInf [ 0 2 -1 0 0 0 0 ] 1e-06;
        m               m [ 0 0 1 0 0 0 0 ] 1;
        n               n [ 0 0 0 0 0 0 0 ] 0;
    }

    BirdCarreauCoeffs
    {
        nu0             nu0 [ 0 2 -1 0 0 0 0 ] 0.0142515;
        nuInf           nuInf [ 0 2 -1 0 0 0 0 ] 1e-06;
        k               k [ 0 0 1 0 0 0 0 ] 99.6;
        n               n [ 0 0 0 0 0 0 0 ] 0.1003;
    }
}

air
{
    transportModel  Newtonian;
    nu              nu [ 0 2 -1 0 0 0 0 ] 1.48e-05;
    rho             rho [ 1 -3 0 0 0 0 0 ] 1;
    CrossPowerLawCoeffs
    {
        nu0             nu0 [ 0 2 -1 0 0 0 0 ] 1e-06;
        nuInf           nuInf [ 0 2 -1 0 0 0 0 ] 1e-06;
        m               m [ 0 0 1 0 0 0 0 ] 1;
        n               n [ 0 0 0 0 0 0 0 ] 0;
    }

    BirdCarreauCoeffs
    {
        nu0             nu0 [ 0 2 -1 0 0 0 0 ] 0.0142515;
        nuInf           nuInf [ 0 2 -1 0 0 0 0 ] 1e-06;
        k               k [ 0 0 1 0 0 0 0 ] 99.6;
        n               n [ 0 0 0 0 0 0 0 ] 0.1003;
    }
}
//*********************************************************************** //

transportModel  Newtonian;

nu              nu [ 0 2 -1 0 0 0 0 ] 1.e-6;

nuMax           nuMax [0 2 -1 0 0 0 0] 1e-1;      // viscosity limiter for the Frictional model (required for stability)

alphasSmall      alphasSmall [ 0 0 0 0 0 0 0 ] 1e-3;  // minimum volume fraction (phase a) for division by alpha 

alphaAlpha      alphaAlpha [ 0 0 0 0 0 ] 0;         // surface tension

waves2Foam      true;
// ************************************************************************* //
