/*--------------------------------*- C++ -*----------------------------------*\
| =========                 |                                                 |
| \\      /  F ield         | OpenFOAM: The Open Source CFD Toolbox           |
|  \\    /   O peration     | Version:  1.7.1                                 |
|   \\  /    A nd           | Web:      www.OpenFOAM.com                      |
|    \\/     M anipulation  |                                                 |
\*---------------------------------------------------------------------------*/
FoamFile
{
    version     2.0;
    format      ascii;
    class       dictionary;
    location    "constant";
    object      kineticTheoryProperties;
}
// * * * * * * * * * * * * * * * * * * * * * * * * * * * * * * * * * * * * * //

kineticTheory   on;

equilibrium     off;

e               e [ 0 0 0 0 0 0 0 ] 0.8;

alphasMax        alphasMax [ 0 0 0 0 0 0 0 ] 0.635;

DiluteCut       DiluteCut [ 0 0 0 0 0 0 0 ] 0.0001;

ttzero          ttzero [ 0 0 1 0 0 0 0 ] 0;

ttone          ttone [ 0 0 1 0 0 0 0 ] 0;

MaxTheta       MaxTheta [ 0 2 -2 0 0 0 0 ] 0.5;

phi             phi [ 0 0 0 0 0 0 0 ] 35.0;

KineticJ1      KineticJ1 [ 0 0 0 0 0 0 0 ] 1; //turn off the viscous dissipation

KineticJ2       KineticJ2 [ 0 0 0 0 0 0 0] 0;

KineticJ3       KineticJ3 [ 0 0 0 0 0 0 0] 0;

viscosityModel  Syamlal;

conductivityModel Syamlal;

granularPressureModel Lun;

frictionalStressModel SrivastavaSundaresan;

radialModel     CarnahanStarling;

HrenyaSinclairCoeffs
{
    L               L [ 0 1 0 0 0 0 0 ] 0.0005;
}


// ************************************************************************* //
