/*--------------------------------*- C++ -*----------------------------------*\
| =========                 |                                                 |
| \\      /  F ield         | OpenFOAM: The Open Source CFD Toolbox           |
|  \\    /   O peration     | Version:  1.7.1                                 |
|   \\  /    A nd           | Web:      www.OpenFOAM.com                      |
|    \\/     M anipulation  |                                                 |
\*---------------------------------------------------------------------------*/
FoamFile
{
    version     2.0;
    format      ascii;
    class       dictionary;
    location    "constant";
    object      transportProperties;
}
// * * * * * * * * * * * * sediment properties * * * * * * * * * * * * //
phasesol
{
    rho             rho [ 1 -3 0 0 0 ] 1000;
    nu              nu [ 0 2 -1 0 0 ] 1e-6;
    d               d [ 0 1 0 0 0 0 0 ] 1e-10;
    hExp            hExp [ 0 0  0 0 0 0 0 ] 2.65;  // hindrance exponent for drag: beta^(-hExp) (2.65 by default)
}
// * * * * * * * * * * * * fluid properties * * * * * * * * * * * * //
phasewat
{
    rho             rho [ 1 -3 0 0 0 ] 1000;
    nu              nu [ 0 2 -1 0 0 ] 1e-6;
    d               d [ 0 1 0 0 0 0 0 ] 290e-6;
}

phasegas
{
    rho             rho [ 1 -3 0 0 0 ] 1;
    nu              nu [ 0 2 -1 0 0 ] 1.48e-5;
    d               d [ 0 1 0 0 0 0 0 ] 290e-6;
}

//*********************************************************************** //
transportModel  Newtonian;

sigmagf         sigmagf [1 0 -2 0 0 0 0] 0.07;

addWater false;

removeAir false;

nu              nu    [0 2 -1 0 0 0 0] 1e3; 

nuMax           nuMax [0 2 -1 0 0 0 0] 1e0;      // viscosity limiter for the Frictional model (required for stability)

alphasSmall      alphasSmall [ 0 0 0 0 0 0 0 ] 1e-5;  // minimum volume fraction (phase a) for division by alpha 

// ************************************************************************* //
